BNZ
     RDKit          3D

117120  0  0  0  0  0  0  0  0999 V2000
    1.8960   -4.8190   -3.3360 C   0  0  0  0  0  0  0  0  0  0  0  0
    0.6410   -4.3070   -3.6040 C   0  0  0  0  0  0  0  0  0  0  0  0
    0.2180   -3.1500   -2.9750 C   0  0  0  0  0  0  0  0  0  0  0  0
    1.0510   -2.5070   -2.0800 C   0  0  0  0  0  0  0  0  0  0  0  0
    2.3060   -3.0200   -1.8110 C   0  0  0  0  0  0  0  0  0  0  0  0
    2.7290   -4.1750   -2.4410 C   0  0  0  0  0  0  0  0  0  0  0  0
   -0.0100   -4.8090   -4.3040 H   0  0  0  0  0  0  0  0  0  0  0  0
    0.7210   -1.6030   -1.5890 H   0  0  0  0  0  0  0  0  0  0  0  0
    3.7100   -4.5760   -2.2320 H   0  0  0  0  0  0  0  0  0  0  0  0
   -0.7670   -2.7470   -3.1860 C   0  0  1  0  0  0  0  0  0  0  0  0
   -1.6740   -3.7980   -3.3570 F   0  0  0  0  0  0  0  0  0  0  0  0
   -1.1800   -1.9440   -2.1180 F   0  0  0  0  0  0  0  0  0  0  0  0
   -0.7160   -1.9790   -4.3550 F   0  0  0  0  0  0  0  0  0  0  0  0
    2.9600   -2.5150   -1.1080 C   0  0  1  0  0  0  0  0  0  0  0  0
    2.9720   -3.2140    0.1030 F   0  0  0  0  0  0  0  0  0  0  0  0
    4.2560   -2.4660   -1.6320 F   0  0  0  0  0  0  0  0  0  0  0  0
    2.4950   -1.2130   -0.8910 F   0  0  0  0  0  0  0  0  0  0  0  0
    2.2290   -5.7370   -3.8310 C   0  0  2  0  0  0  0  0  0  0  0  0
    1.5940   -6.8930   -3.2090 N   0  0  0  0  0  0  0  0  0  0  0  0
    1.7450   -8.2150   -3.7420 C   0  0  0  0  0  0  0  0  0  0  0  0
    2.8000   -8.5390   -4.3500 O   0  0  0  0  0  0  0  0  0  0  0  0
    0.6670   -9.2350   -3.5380 C   0  0  2  0  0  0  0  0  0  0  0  0
    1.1080  -10.5950   -4.0670 C   0  0  1  0  0  0  0  0  0  0  0  0
    3.3340   -5.8250   -3.7480 H   0  0  0  0  0  0  0  0  0  0  0  0
    1.9520   -5.6870   -4.9040 H   0  0  0  0  0  0  0  0  0  0  0  0
    1.0170   -6.7480   -2.3500 H   0  0  0  0  0  0  0  0  0  0  0  0
   -0.2580   -8.9170   -4.0660 H   0  0  0  0  0  0  0  0  0  0  0  0
    0.4310   -9.3180   -2.4560 H   0  0  0  0  0  0  0  0  0  0  0  0
   -2.0010  -12.7100   -4.9410 C   0  0  0  0  0  0  0  0  0  0  0  0
   -1.9730  -11.9730   -3.7720 C   0  0  0  0  0  0  0  0  0  0  0  0
   -0.8590  -11.2160   -3.4590 C   0  0  0  0  0  0  0  0  0  0  0  0
    0.2260  -11.1960   -4.3140 C   0  0  0  0  0  0  0  0  0  0  0  0
    0.1990  -11.9330   -5.4830 C   0  0  0  0  0  0  0  0  0  0  0  0
   -0.9160  -12.6890   -5.7970 C   0  0  0  0  0  0  0  0  0  0  0  0
   -3.4240  -13.6840   -5.3380 Cl  0  0  0  0  0  0  0  0  0  0  0  0
   -2.8200  -11.9880   -3.1030 H   0  0  0  0  0  0  0  0  0  0  0  0
   -0.8370  -10.6390   -2.5460 H   0  0  0  0  0  0  0  0  0  0  0  0
    1.0450  -11.9180   -6.1520 H   0  0  0  0  0  0  0  0  0  0  0  0
   -0.9390  -13.2650   -6.7100 H   0  0  0  0  0  0  0  0  0  0  0  0
    3.2420  -10.1660   -7.2540 C   0  0  0  0  0  0  0  0  0  0  0  0
    2.2190   -9.2770   -6.9840 C   0  0  0  0  0  0  0  0  0  0  0  0
    1.4550   -9.4310   -5.8410 C   0  0  0  0  0  0  0  0  0  0  0  0
    1.7140  -10.4730   -4.9720 C   0  0  0  0  0  0  0  0  0  0  0  0
    2.7380  -11.3610   -5.2420 C   0  0  0  0  0  0  0  0  0  0  0  0
    3.5010  -11.2090   -6.3850 C   0  0  0  0  0  0  0  0  0  0  0  0
    4.2240   -9.9650   -8.7130 Cl  0  0  0  0  0  0  0  0  0  0  0  0
    2.0160   -8.4630   -7.6630 H   0  0  0  0  0  0  0  0  0  0  0  0
    0.6540   -8.7380   -5.6300 H   0  0  0  0  0  0  0  0  0  0  0  0
    2.9400  -12.1760   -4.5630 H   0  0  0  0  0  0  0  0  0  0  0  0
    4.3010  -11.9030   -6.5970 H   0  0  0  0  0  0  0  0  0  0  0  0
    3.1650  -12.4700   -1.3930 C   0  0  0  0  0  0  0  0  0  0  0  0
    3.2940  -11.1010   -1.5290 C   0  0  0  0  0  0  0  0  0  0  0  0
    2.5570  -10.4300   -2.4870 C   0  0  0  0  0  0  0  0  0  0  0  0
    1.6930  -11.1270   -3.3090 C   0  0  0  0  0  0  0  0  0  0  0  0
    1.5640  -12.4970   -3.1740 C   0  0  0  0  0  0  0  0  0  0  0  0
    2.3000  -13.1680   -2.2140 C   0  0  0  0  0  0  0  0  0  0  0  0
    4.1140  -13.3300   -0.1710 Cl  0  0  0  0  0  0  0  0  0  0  0  0
    3.9700  -10.5550   -0.8880 H   0  0  0  0  0  0  0  0  0  0  0  0
    2.6570   -9.3590   -2.5930 H   0  0  0  0  0  0  0  0  0  0  0  0
    0.8880  -13.0430   -3.8140 H   0  0  0  0  0  0  0  0  0  0  0  0
    2.2000  -14.2380   -2.1070 H   0  0  0  0  0  0  0  0  0  0  0  0
    6.5690   -7.9870   -3.4390 C   0  0  2  0  0  0  0  0  0  0  0  0
    6.2820   -9.1400   -2.3960 C   0  0  1  0  0  0  0  0  0  0  0  0
    5.7430   -8.5390   -1.0380 O   0  0  0  0  0  0  0  0  0  0  0  0
    4.9330   -9.4960   -0.3510 C   0  0  2  0  0  0  0  0  0  0  0  0
    3.8870   -8.7640    0.5560 C   0  0  1  0  0  0  0  0  0  0  0  0
    2.7340   -9.5870    0.7510 O   0  0  0  0  0  0  0  0  0  0  0  0
    1.4640   -8.6990    1.0610 C   0  0  1  0  0  0  0  0  0  0  0  0
    0.1430   -9.4460    0.6200 C   0  0  1  0  0  0  0  0  0  0  0  0
   -0.8890   -8.5040    0.3140 O   0  0  0  0  0  0  0  0  0  0  0  0
   -1.9120   -9.1180   -0.7220 C   0  0  1  0  0  0  0  0  0  0  0  0
   -2.6070   -7.9740   -1.5610 C   0  0  2  0  0  0  0  0  0  0  0  0
   -3.0680   -8.5210   -2.9710 O   0  0  0  0  0  0  0  0  0  0  0  0
   -3.1170   -7.4610   -3.9290 C   0  0  1  0  0  0  0  0  0  0  0  0
   -2.9020   -8.0230   -5.3910 C   0  0  1  0  0  0  0  0  0  0  0  0
   -2.3490   -7.0150   -6.2410 O   0  0  0  0  0  0  0  0  0  0  0  0
   -1.5260   -7.6720   -7.4190 C   0  0  1  0  0  0  0  0  0  0  0  0
   -0.4040   -6.6840   -7.9300 C   0  0  1  0  0  0  0  0  0  0  0  0
    0.6840   -7.4130   -8.5050 O   0  0  0  0  0  0  0  0  0  0  0  0
    2.0270   -6.5860   -8.3960 C   0  0  2  0  0  0  0  0  0  0  0  0
    3.2750   -7.5540   -8.3740 C   0  0  2  0  0  0  0  0  0  0  0  0
    4.3720   -6.9440   -7.6890 O   0  0  0  0  0  0  0  0  0  0  0  0
    5.3240   -8.0440   -7.0720 C   0  0  1  0  0  0  0  0  0  0  0  0
    6.0910   -7.4740   -5.8130 C   0  0  1  0  0  0  0  0  0  0  0  0
    6.4430   -8.5310   -4.9170 O   0  0  0  0  0  0  0  0  0  0  0  0
    7.5720   -7.6020   -3.2560 H   0  0  0  0  0  0  0  0  0  0  0  0
    5.8560   -7.1820   -3.2640 H   0  0  0  0  0  0  0  0  0  0  0  0
    5.5350   -9.8320   -2.7860 H   0  0  0  0  0  0  0  0  0  0  0  0
    7.1920   -9.7020   -2.1860 H   0  0  0  0  0  0  0  0  0  0  0  0
    5.5860  -10.1400    0.2380 H   0  0  0  0  0  0  0  0  0  0  0  0
    4.4250  -10.1120   -1.0940 H   0  0  0  0  0  0  0  0  0  0  0  0
    4.3240   -8.5490    1.5310 H   0  0  0  0  0  0  0  0  0  0  0  0
    3.5650   -7.8230    0.1090 H   0  0  0  0  0  0  0  0  0  0  0  0
    1.3970   -8.4850    2.1280 H   0  0  0  0  0  0  0  0  0  0  0  0
    1.5180   -7.7520    0.5240 H   0  0  0  0  0  0  0  0  0  0  0  0
    0.3250  -10.0550   -0.2650 H   0  0  0  0  0  0  0  0  0  0  0  0
   -0.2130  -10.0980    1.4180 H   0  0  0  0  0  0  0  0  0  0  0  0
   -1.4020   -9.7890   -1.4130 H   0  0  0  0  0  0  0  0  0  0  0  0
   -2.6870   -9.6840   -0.2050 H   0  0  0  0  0  0  0  0  0  0  0  0
   -1.8960   -7.1570   -1.6810 H   0  0  0  0  0  0  0  0  0  0  0  0
   -3.4620   -7.6050   -0.9950 H   0  0  0  0  0  0  0  0  0  0  0  0
   -4.0830   -6.9570   -3.8950 H   0  0  0  0  0  0  0  0  0  0  0  0
   -2.3390   -6.7250   -3.7270 H   0  0  0  0  0  0  0  0  0  0  0  0
   -2.2200   -8.8730   -5.3780 H   0  0  0  0  0  0  0  0  0  0  0  0
   -3.8500   -8.3510   -5.8180 H   0  0  0  0  0  0  0  0  0  0  0  0
   -1.0460   -8.5920   -7.0840 H   0  0  0  0  0  0  0  0  0  0  0  0
   -2.1800   -7.9120   -8.2570 H   0  0  0  0  0  0  0  0  0  0  0  0
   -0.8030   -6.0100   -8.6890 H   0  0  0  0  0  0  0  0  0  0  0  0
   -0.0170   -6.0830   -7.1070 H   0  0  0  0  0  0  0  0  0  0  0  0
    1.9880   -5.9890   -7.4850 H   0  0  0  0  0  0  0  0  0  0  0  0
    2.0820   -5.9080   -9.2480 H   0  0  0  0  0  0  0  0  0  0  0  0
    3.5480   -7.7860   -9.4030 H   0  0  0  0  0  0  0  0  0  0  0  0
    2.9830   -8.4800   -7.8800 H   0  0  0  0  0  0  0  0  0  0  0  0
    4.7490   -8.9150   -6.7570 H   0  0  0  0  0  0  0  0  0  0  0  0
    6.0620   -8.3680   -7.8050 H   0  0  0  0  0  0  0  0  0  0  0  0
    7.0050   -6.9650   -6.1200 H   0  0  0  0  0  0  0  0  0  0  0  0
    5.4670   -6.7610   -5.2740 H   0  0  0  0  0  0  0  0  0  0  0  0
  1  2  2  0
  1  6  1  0
  1 18  1  0
  2  3  1  0
  2  7  1  0
  3  4  2  0
  3 10  1  0
  4  5  1  0
  4  8  1  0
  5  6  2  0
  5 14  1  0
  6  9  1  0
 10 11  1  6
 10 12  1  0
 10 13  1  0
 14 15  1  1
 14 16  1  0
 14 17  1  0
 18 19  1  0
 18 24  1  6
 18 25  1  0
 19 20  1  0
 19 26  1  0
 20 21  2  0
 20 22  1  0
 22 23  1  0
 22 27  1  6
 22 28  1  0
 29 30  2  0
 29 34  1  0
 29 35  1  0
 30 31  1  0
 30 36  1  0
 31 32  2  0
 31 37  1  0
 32 33  1  0
 33 34  2  0
 33 38  1  0
 34 39  1  0
 23 32  1  6
 23 43  1  0
 23 54  1  0
 40 41  2  0
 40 45  1  0
 40 46  1  0
 41 42  1  0
 41 47  1  0
 42 43  2  0
 42 48  1  0
 43 44  1  0
 44 45  2  0
 44 49  1  0
 45 50  1  0
 51 52  2  0
 51 56  1  0
 51 57  1  0
 52 53  1  0
 52 58  1  0
 53 54  2  0
 53 59  1  0
 54 55  1  0
 55 56  2  0
 55 60  1  0
 56 61  1  0
 63 62  1  0
 63 88  1  6
 63 89  1  0
 64 63  1  0
 65 64  1  0
 65 90  1  1
 65 91  1  0
 66 65  1  0
 66 92  1  1
 66 93  1  0
 67 66  1  0
 68 67  1  0
 68 94  1  1
 68 95  1  0
 69 68  1  0
 69 96  1  6
 69 97  1  0
 70 69  1  0
 71 70  1  0
 71 98  1  6
 71 99  1  0
 72 71  1  0
 72100  1  6
 72101  1  0
 73 72  1  0
 74 73  1  0
 74102  1  6
 74103  1  0
 75 74  1  0
 75104  1  1
 75105  1  0
 76 75  1  0
 77 76  1  0
 77106  1  1
 77107  1  0
 78 77  1  0
 78108  1  6
 78109  1  0
 79 78  1  0
 80 79  1  0
 80110  1  1
 80111  1  0
 81 80  1  0
 81112  1  6
 81113  1  0
 82 81  1  0
 83 82  1  0
 83114  1  1
 83115  1  0
 84 83  1  0
 84116  1  6
 84117  1  0
 85 84  1  0
 62 85  1  0
 62 86  1  1
 62 87  1  0
M  END
