BNZ
     RDKit          3D

117120  0  0  0  0  0  0  0  0999 V2000
    5.5730   -2.8920   -7.5400 C   0  0  0  0  0  0  0  0  0  0  0  0
    6.7310   -3.6420   -7.6200 C   0  0  0  0  0  0  0  0  0  0  0  0
    7.8430   -3.1290   -8.2630 C   0  0  0  0  0  0  0  0  0  0  0  0
    7.7960   -1.8670   -8.8250 C   0  0  0  0  0  0  0  0  0  0  0  0
    6.6370   -1.1180   -8.7450 C   0  0  0  0  0  0  0  0  0  0  0  0
    5.5260   -1.6300   -8.1000 C   0  0  0  0  0  0  0  0  0  0  0  0
    6.7680   -4.6280   -7.1820 H   0  0  0  0  0  0  0  0  0  0  0  0
    8.6640   -1.4660   -9.3260 H   0  0  0  0  0  0  0  0  0  0  0  0
    4.6210   -1.0440   -8.0360 H   0  0  0  0  0  0  0  0  0  0  0  0
    8.7530   -3.7170   -8.3260 C   0  0  1  0  0  0  0  0  0  0  0  0
    8.4550   -5.0630   -8.0890 F   0  0  0  0  0  0  0  0  0  0  0  0
    9.3080   -3.5800   -9.6030 F   0  0  0  0  0  0  0  0  0  0  0  0
    9.6670   -3.2650   -7.3680 F   0  0  0  0  0  0  0  0  0  0  0  0
    6.6000   -0.1270   -9.1840 C   0  0  1  0  0  0  0  0  0  0  0  0
    7.8180    0.5260   -8.9650 F   0  0  0  0  0  0  0  0  0  0  0  0
    6.3690   -0.2350  -10.5590 F   0  0  0  0  0  0  0  0  0  0  0  0
    5.5650    0.6070   -8.5930 F   0  0  0  0  0  0  0  0  0  0  0  0
    4.6910   -3.3000   -7.0340 C   0  0  2  0  0  0  0  0  0  0  0  0
    5.0560   -3.7590   -5.6990 N   0  0  0  0  0  0  0  0  0  0  0  0
    4.1580   -4.5380   -4.8980 C   0  0  0  0  0  0  0  0  0  0  0  0
    4.4180   -5.7450   -4.6410 O   0  0  0  0  0  0  0  0  0  0  0  0
    2.9260   -3.9100   -4.3210 C   0  0  2  0  0  0  0  0  0  0  0  0
    2.1260   -4.9310   -3.5210 C   0  0  1  0  0  0  0  0  0  0  0  0
    4.2820   -4.1470   -7.6250 H   0  0  0  0  0  0  0  0  0  0  0  0
    3.9200   -2.5060   -6.9620 H   0  0  0  0  0  0  0  0  0  0  0  0
    5.9990   -3.5140   -5.3220 H   0  0  0  0  0  0  0  0  0  0  0  0
    2.2920   -3.5030   -5.1380 H   0  0  0  0  0  0  0  0  0  0  0  0
    3.2130   -3.0650   -3.6590 H   0  0  0  0  0  0  0  0  0  0  0  0
    2.4050   -8.3940   -5.2020 C   0  0  0  0  0  0  0  0  0  0  0  0
    3.1380   -8.1190   -4.0630 C   0  0  0  0  0  0  0  0  0  0  0  0
    3.0390   -6.8780   -3.4610 C   0  0  0  0  0  0  0  0  0  0  0  0
    2.2060   -5.9140   -3.9980 C   0  0  0  0  0  0  0  0  0  0  0  0
    1.4740   -6.1900   -5.1370 C   0  0  0  0  0  0  0  0  0  0  0  0
    1.5720   -7.4310   -5.7380 C   0  0  0  0  0  0  0  0  0  0  0  0
    2.4860   -9.3620   -5.6740 Cl  0  0  0  0  0  0  0  0  0  0  0  0
    3.7890   -8.8710   -3.6430 H   0  0  0  0  0  0  0  0  0  0  0  0
    3.6100   -6.6620   -2.5710 H   0  0  0  0  0  0  0  0  0  0  0  0
    0.8230   -5.4380   -5.5560 H   0  0  0  0  0  0  0  0  0  0  0  0
    0.9990   -7.6480   -6.6280 H   0  0  0  0  0  0  0  0  0  0  0  0
    3.5030   -5.1840    0.0760 C   0  0  0  0  0  0  0  0  0  0  0  0
    2.1960   -5.5450   -0.1900 C   0  0  0  0  0  0  0  0  0  0  0  0
    1.7030   -5.4550   -1.4790 C   0  0  0  0  0  0  0  0  0  0  0  0
    2.5170   -5.0040   -2.5000 C   0  0  0  0  0  0  0  0  0  0  0  0
    3.8250   -4.6440   -2.2340 C   0  0  0  0  0  0  0  0  0  0  0  0
    4.3170   -4.7330   -0.9450 C   0  0  0  0  0  0  0  0  0  0  0  0
    3.8890   -5.2580    1.0820 Cl  0  0  0  0  0  0  0  0  0  0  0  0
    1.5590   -5.8970    0.6080 H   0  0  0  0  0  0  0  0  0  0  0  0
    0.6810   -5.7350   -1.6870 H   0  0  0  0  0  0  0  0  0  0  0  0
    4.4610   -4.2910   -3.0310 H   0  0  0  0  0  0  0  0  0  0  0  0
    5.3390   -4.4510   -0.7360 H   0  0  0  0  0  0  0  0  0  0  0  0
   -1.5960   -3.9180   -3.3970 C   0  0  0  0  0  0  0  0  0  0  0  0
   -1.2460   -5.2510   -3.4930 C   0  0  0  0  0  0  0  0  0  0  0  0
    0.0870   -5.6140   -3.5370 C   0  0  0  0  0  0  0  0  0  0  0  0
    1.0700   -4.6440   -3.4850 C   0  0  0  0  0  0  0  0  0  0  0  0
    0.7200   -3.3110   -3.3880 C   0  0  0  0  0  0  0  0  0  0  0  0
   -0.6140   -2.9470   -3.3460 C   0  0  0  0  0  0  0  0  0  0  0  0
   -2.6380   -3.6350   -3.3590 Cl  0  0  0  0  0  0  0  0  0  0  0  0
   -2.0130   -6.0100   -3.5330 H   0  0  0  0  0  0  0  0  0  0  0  0
    0.3610   -6.6560   -3.6130 H   0  0  0  0  0  0  0  0  0  0  0  0
    1.4870   -2.5520   -3.3480 H   0  0  0  0  0  0  0  0  0  0  0  0
   -0.8880   -1.9050   -3.2710 H   0  0  0  0  0  0  0  0  0  0  0  0
    4.5120   -2.2640   -2.0090 C   0  0  1  0  0  0  0  0  0  0  0  0
    5.5370   -3.2780   -2.5150 C   0  0  1  0  0  0  0  0  0  0  0  0
    3.8910   -1.5990   -3.1130 O   0  0  0  0  0  0  0  0  0  0  0  0
    3.7510   -2.7900   -1.4220 H   0  0  0  0  0  0  0  0  0  0  0  0
    5.0010   -1.5100   -1.3830 H   0  0  0  0  0  0  0  0  0  0  0  0
    5.8950   -3.8780   -1.6700 H   0  0  0  0  0  0  0  0  0  0  0  0
    5.0650   -3.9300   -3.2570 H   0  0  0  0  0  0  0  0  0  0  0  0
    2.2080   -0.0060   -3.8490 C   0  0  2  0  0  0  0  0  0  0  0  0
    2.7260   -0.8760   -2.7040 C   0  0  1  0  0  0  0  0  0  0  0  0
    1.6250   -0.8000   -4.8870 O   0  0  0  0  0  0  0  0  0  0  0  0
    2.9990    0.6410   -4.2470 H   0  0  0  0  0  0  0  0  0  0  0  0
    1.4090    0.6370   -3.4640 H   0  0  0  0  0  0  0  0  0  0  0  0
    1.9580   -1.5960   -2.4030 H   0  0  0  0  0  0  0  0  0  0  0  0
    2.9800   -0.2340   -1.8520 H   0  0  0  0  0  0  0  0  0  0  0  0
    1.9070   -1.9950   -6.9820 C   0  0  1  0  0  0  0  0  0  0  0  0
    2.5390   -1.0450   -5.9600 C   0  0  2  0  0  0  0  0  0  0  0  0
    1.7960   -3.3500   -6.5350 O   0  0  0  0  0  0  0  0  0  0  0  0
    0.8890   -1.6610   -7.2100 H   0  0  0  0  0  0  0  0  0  0  0  0
    2.4780   -1.9820   -7.9170 H   0  0  0  0  0  0  0  0  0  0  0  0
    3.4770   -1.4530   -5.5750 H   0  0  0  0  0  0  0  0  0  0  0  0
    2.7480   -0.0890   -6.4530 H   0  0  0  0  0  0  0  0  0  0  0  0
    2.9370   -5.4850   -6.5630 C   0  0  2  0  0  0  0  0  0  0  0  0
    3.0560   -3.9810   -6.2920 C   0  0  1  0  0  0  0  0  0  0  0  0
    2.7330   -5.7770   -7.9540 O   0  0  0  0  0  0  0  0  0  0  0  0
    2.0620   -5.8790   -6.0360 H   0  0  0  0  0  0  0  0  0  0  0  0
    3.8210   -6.0170   -6.1960 H   0  0  0  0  0  0  0  0  0  0  0  0
    3.8340   -3.5360   -6.9190 H   0  0  0  0  0  0  0  0  0  0  0  0
    3.3160   -3.8220   -5.2400 H   0  0  0  0  0  0  0  0  0  0  0  0
    4.6440   -7.0660   -8.7740 C   0  0  1  0  0  0  0  0  0  0  0  0
    3.9220   -5.7160   -8.7380 C   0  0  2  0  0  0  0  0  0  0  0  0
    6.0240   -6.8820   -9.1070 O   0  0  0  0  0  0  0  0  0  0  0  0
    4.5400   -7.6250   -7.8370 H   0  0  0  0  0  0  0  0  0  0  0  0
    4.1950   -7.6880   -9.5560 H   0  0  0  0  0  0  0  0  0  0  0  0
    4.5820   -4.9090   -8.4070 H   0  0  0  0  0  0  0  0  0  0  0  0
    3.6250   -5.4550   -9.7610 H   0  0  0  0  0  0  0  0  0  0  0  0
    8.1050   -5.9200   -8.3260 C   0  0  1  0  0  0  0  0  0  0  0  0
    6.8160   -6.6400   -7.9420 C   0  0  2  0  0  0  0  0  0  0  0  0
    8.8700   -5.6130   -7.1600 O   0  0  0  0  0  0  0  0  0  0  0  0
    8.7090   -6.5820   -8.9550 H   0  0  0  0  0  0  0  0  0  0  0  0
    7.8970   -5.0290   -8.9310 H   0  0  0  0  0  0  0  0  0  0  0  0
    7.0460   -7.5980   -7.4620 H   0  0  0  0  0  0  0  0  0  0  0  0
    6.2570   -6.0450   -7.2150 H   0  0  0  0  0  0  0  0  0  0  0  0
    7.5460   -3.6470   -6.3760 C   0  0  2  0  0  0  0  0  0  0  0  0
    8.8990   -4.2250   -6.8180 C   0  0  1  0  0  0  0  0  0  0  0  0
    6.8380   -4.4400   -5.4220 O   0  0  0  0  0  0  0  0  0  0  0  0
    6.8880   -3.5700   -7.2470 H   0  0  0  0  0  0  0  0  0  0  0  0
    7.6700   -2.6280   -5.9950 H   0  0  0  0  0  0  0  0  0  0  0  0
    9.6180   -4.1290   -5.9990 H   0  0  0  0  0  0  0  0  0  0  0  0
    9.3040   -3.6480   -7.6570 H   0  0  0  0  0  0  0  0  0  0  0  0
    7.7790   -3.4430   -3.3430 C   0  0  2  0  0  0  0  0  0  0  0  0
    7.5120   -4.6940   -4.1910 C   0  0  2  0  0  0  0  0  0  0  0  0
    6.6410   -2.6060   -3.1250 O   0  0  0  0  0  0  0  0  0  0  0  0
    8.5300   -2.8170   -3.8360 H   0  0  0  0  0  0  0  0  0  0  0  0
    8.1970   -3.7320   -2.3720 H   0  0  0  0  0  0  0  0  0  0  0  0
    8.4440   -5.2410   -4.3720 H   0  0  0  0  0  0  0  0  0  0  0  0
    6.8660   -5.3790   -3.6310 H   0  0  0  0  0  0  0  0  0  0  0  0
  1  2  2  0
  1  6  1  0
  1 18  1  0
  2  3  1  0
  2  7  1  0
  3  4  2  0
  3 10  1  0
  4  5  1  0
  4  8  1  0
  5  6  2  0
  5 14  1  0
  6  9  1  0
 10 11  1  1
 10 12  1  0
 10 13  1  0
 14 15  1  6
 14 16  1  0
 14 17  1  0
 18 19  1  0
 18 24  1  6
 18 25  1  0
 19 20  1  0
 19 26  1  0
 20 21  2  0
 20 22  1  0
 22 23  1  0
 22 27  1  6
 22 28  1  0
 29 30  2  0
 29 34  1  0
 29 35  1  0
 30 31  1  0
 30 36  1  0
 31 32  2  0
 31 37  1  0
 32 33  1  0
 33 34  2  0
 33 38  1  0
 34 39  1  0
 23 32  1  6
 23 43  1  0
 23 54  1  0
 40 41  2  0
 40 45  1  0
 40 46  1  0
 41 42  1  0
 41 47  1  0
 42 43  2  0
 42 48  1  0
 43 44  1  0
 44 45  2  0
 44 49  1  0
 45 50  1  0
 51 52  2  0
 51 56  1  0
 51 57  1  0
 52 53  1  0
 52 58  1  0
 53 54  2  0
 53 59  1  0
 54 55  1  0
 55 56  2  0
 55 60  1  0
 56 61  1  0
 62 63  1  0
 62 64  1  0
 62 65  1  1
 62 66  1  0
 63 67  1  1
 63 68  1  0
 63113  1  0
 64 70  1  0
 69 70  1  0
 69 71  1  0
 69 72  1  6
 69 73  1  0
 70 74  1  1
 70 75  1  0
 71 77  1  0
 76 77  1  0
 76 78  1  0
 76 79  1  6
 76 80  1  0
 77 81  1  1
 77 82  1  0
 78 84  1  0
 83 84  1  0
 83 85  1  0
 83 86  1  1
 83 87  1  0
 84 88  1  6
 84 89  1  0
 85 91  1  0
 90 91  1  0
 90 92  1  0
 90 93  1  1
 90 94  1  0
 91 95  1  1
 91 96  1  0
 92 98  1  0
 97 98  1  0
 97 99  1  0
 97100  1  6
 97101  1  0
 98102  1  1
 98103  1  0
 99105  1  0
104105  1  0
104106  1  0
104107  1  6
104108  1  0
105109  1  1
105110  1  0
106112  1  0
111112  1  0
111113  1  0
111114  1  6
111115  1  0
112116  1  6
112117  1  0
M  END
